
  ACD/Labs12011411343D

 80 83  0  0  0  0  0  0  0  0  1 V2000
   13.0896  -18.5090   -1.9271 C   0  0  0  0  0  0  0  0  0  0  0  0
   14.4502  -17.9381   -2.3574 C   0  0  0  0  0  0  0  0  0  0  0  0
   15.5504  -18.3564   -1.3644 C   0  0  0  0  0  0  0  0  0  0  0  0
   15.5242  -19.8834   -1.1918 C   0  0  0  0  0  0  0  0  0  0  0  0
   14.1855  -20.5750   -1.0008 C   0  0  0  0  0  0  0  0  0  0  0  0
   13.1238  -20.0430   -1.9754 C   0  0  0  0  0  0  0  0  0  0  0  0
   16.9324  -17.9016   -1.9117 C   0  0  0  0  0  0  0  0  0  0  0  0
   18.0302  -18.5316   -1.0481 C   0  0  0  0  0  0  0  0  0  0  0  0
   18.0269  -20.0365   -1.3391 C   0  0  0  0  0  0  0  0  0  0  0  0
   16.6406  -20.6296   -1.1729 C   0  0  0  0  0  0  0  0  0  0  0  0
   17.0525  -16.3697   -1.8818 C   0  0  0  0  0  0  0  0  0  0  0  0
   18.4180  -15.9513   -2.4344 C   0  0  0  0  0  0  0  0  0  0  0  0
   19.5760  -16.4399   -1.5447 C   0  0  0  0  0  0  0  0  0  0  0  0
   19.4475  -17.9466   -1.2631 C   0  0  0  0  0  0  0  0  0  0  0  0
   20.2825  -18.5703   -2.3764 C   0  0  0  0  0  0  0  0  0  0  0  0
   21.4990  -17.6346   -2.3977 C   0  0  0  0  0  0  0  0  0  0  0  0
   20.9193  -16.2086   -2.2781 C   0  0  0  0  0  0  0  0  0  0  0  0
   21.9010  -15.1926   -1.6380 C   0  0  0  0  0  0  0  0  0  0  0  0
   23.3456  -15.5437   -2.0312 C   0  0  0  0  0  0  0  0  0  0  0  0
   24.3805  -14.6749   -1.3057 C   0  0  0  0  0  0  0  0  0  0  0  0
   25.7870  -15.2186   -1.6067 C   0  0  0  0  0  0  0  0  0  0  0  0
   26.8533  -14.2309   -1.0840 C   0  0  0  0  0  0  0  0  0  0  0  0
   26.6482  -12.8483   -1.7125 C   0  0  0  0  0  0  0  0  0  0  0  0
   28.2721  -14.6969   -1.4270 C   0  0  0  0  0  0  0  0  0  0  0  0
   25.9573  -16.5804   -0.9120 C   0  0  0  0  0  0  0  0  0  0  0  0
   27.1128  -17.3818   -1.5221 C   0  0  0  0  0  0  0  0  0  0  0  0
   21.5671  -13.7826   -2.1377 C   0  0  0  0  0  0  0  0  0  0  0  0
   15.2993  -17.6956    0.0000 C   0  0  0  0  0  0  0  0  0  0  0  0
   11.8517  -20.5530   -1.6043 O   0  0  0  0  0  0  0  0  0  0  0  0
   19.5351  -15.6649   -0.2204 C   0  0  0  0  0  0  0  0  0  0  0  0
   13.3763  -20.3722   -3.0094 H   0  0  0  0  0  0  0  0  0  0  0  0
   21.8029  -15.2335   -0.5289 H   0  0  0  0  0  0  0  0  0  0  0  0
   25.9102  -15.3382   -2.7069 H   0  0  0  0  0  0  0  0  0  0  0  0
   12.8633  -18.1792   -0.8906 H   0  0  0  0  0  0  0  0  0  0  0  0
   12.3004  -18.1375   -2.6151 H   0  0  0  0  0  0  0  0  0  0  0  0
   14.7038  -18.3231   -3.3683 H   0  0  0  0  0  0  0  0  0  0  0  0
   14.3871  -16.8293   -2.3880 H   0  0  0  0  0  0  0  0  0  0  0  0
   14.3216  -21.6645   -1.1702 H   0  0  0  0  0  0  0  0  0  0  0  0
   13.8421  -20.4017    0.0415 H   0  0  0  0  0  0  0  0  0  0  0  0
   17.0526  -18.2290   -2.9666 H   0  0  0  0  0  0  0  0  0  0  0  0
   17.7856  -18.3072    0.0122 H   0  0  0  0  0  0  0  0  0  0  0  0
   18.3658  -20.2074   -2.3832 H   0  0  0  0  0  0  0  0  0  0  0  0
   18.7201  -20.5461   -0.6361 H   0  0  0  0  0  0  0  0  0  0  0  0
   16.4231  -21.7088   -1.0238 H   0  0  0  0  0  0  0  0  0  0  0  0
   16.2497  -15.9222   -2.5059 H   0  0  0  0  0  0  0  0  0  0  0  0
   16.9527  -16.0100   -0.8353 H   0  0  0  0  0  0  0  0  0  0  0  0
   18.5379  -16.3824   -3.4513 H   0  0  0  0  0  0  0  0  0  0  0  0
   18.4530  -14.8425   -2.4952 H   0  0  0  0  0  0  0  0  0  0  0  0
   19.8355  -18.2014   -0.2538 H   0  0  0  0  0  0  0  0  0  0  0  0
   20.5734  -19.6135   -2.1284 H   0  0  0  0  0  0  0  0  0  0  0  0
   19.7396  -18.5572   -3.3456 H   0  0  0  0  0  0  0  0  0  0  0  0
   22.1723  -17.8558   -1.5420 H   0  0  0  0  0  0  0  0  0  0  0  0
   22.0593  -17.7501   -3.3500 H   0  0  0  0  0  0  0  0  0  0  0  0
   20.7494  -15.7087   -3.2556 H   0  0  0  0  0  0  0  0  0  0  0  0
   23.5358  -16.6086   -1.7777 H   0  0  0  0  0  0  0  0  0  0  0  0
   23.4635  -15.3964   -3.1261 H   0  0  0  0  0  0  0  0  0  0  0  0
   24.3010  -13.6259   -1.6628 H   0  0  0  0  0  0  0  0  0  0  0  0
   24.1929  -14.7093   -0.2112 H   0  0  0  0  0  0  0  0  0  0  0  0
   26.7443  -14.1785    0.0204 H   0  0  0  0  0  0  0  0  0  0  0  0
   26.6618  -12.9396   -2.8197 H   0  0  0  0  0  0  0  0  0  0  0  0
   25.6694  -12.4355   -1.3870 H   0  0  0  0  0  0  0  0  0  0  0  0
   27.4651  -12.1691   -1.3870 H   0  0  0  0  0  0  0  0  0  0  0  0
   28.3918  -14.7362   -2.5309 H   0  0  0  0  0  0  0  0  0  0  0  0
   29.0092  -13.9836   -0.9998 H   0  0  0  0  0  0  0  0  0  0  0  0
   28.4427  -15.7083   -0.9998 H   0  0  0  0  0  0  0  0  0  0  0  0
   26.1658  -16.4133    0.1664 H   0  0  0  0  0  0  0  0  0  0  0  0
   25.0180  -17.1632   -1.0221 H   0  0  0  0  0  0  0  0  0  0  0  0
   27.0490  -17.3376   -2.6304 H   0  0  0  0  0  0  0  0  0  0  0  0
   28.0801  -16.9481   -1.1893 H   0  0  0  0  0  0  0  0  0  0  0  0
   27.0454  -18.4398   -1.1893 H   0  0  0  0  0  0  0  0  0  0  0  0
   21.5652  -13.7746   -3.2487 H   0  0  0  0  0  0  0  0  0  0  0  0
   20.5639  -13.4854   -1.7636 H   0  0  0  0  0  0  0  0  0  0  0  0
   22.3304  -13.0671   -1.7636 H   0  0  0  0  0  0  0  0  0  0  0  0
   14.9086  -16.6668   -0.1535 H   0  0  0  0  0  0  0  0  0  0  0  0
   14.5553  -18.2931    0.5692 H   0  0  0  0  0  0  0  0  0  0  0  0
   16.2524  -17.6485    0.5692 H   0  0  0  0  0  0  0  0  0  0  0  0
   11.3261  -21.1236   -2.2541 H   0  0  0  0  0  0  0  0  0  0  0  0
   19.4776  -14.5755   -0.4309 H   0  0  0  0  0  0  0  0  0  0  0  0
   18.6426  -15.9767    0.3634 H   0  0  0  0  0  0  0  0  0  0  0  0
   20.4554  -15.8811    0.3634 H   0  0  0  0  0  0  0  0  0  0  0  0
  1  2  1  0  0  0  0
  2  3  1  0  0  0  0
  3  4  1  0  0  0  0
  4  5  1  0  0  0  0
  5  6  1  0  0  0  0
  6  1  1  0  0  0  0
  3  7  1  0  0  0  0
  7  8  1  0  0  0  0
  8  9  1  0  0  0  0
  9 10  1  0  0  0  0
 10  4  2  0  0  0  0
  7 11  1  0  0  0  0
 11 12  1  0  0  0  0
 12 13  1  0  0  0  0
 13 14  1  0  0  0  0
 14  8  1  0  0  0  0
 14 15  1  0  0  0  0
 15 16  1  0  0  0  0
 16 17  1  0  0  0  0
 17 13  1  0  0  0  0
 17 18  1  0  0  0  0
 18 19  1  0  0  0  0
 19 20  1  0  0  0  0
 20 21  1  0  0  0  0
 21 22  1  0  0  0  0
 22 23  1  0  0  0  0
 22 24  1  0  0  0  0
 21 25  1  0  0  0  0
 25 26  1  0  0  0  0
 18 27  1  0  0  0  0
  3 28  1  0  0  0  0
  6 29  1  0  0  0  0
 13 30  1  0  0  0  0
 31  6  1  0  0  0  0
 32 18  1  0  0  0  0
 33 21  1  0  0  0  0
 34  1  1  0  0  0  0
 35  1  1  0  0  0  0
 36  2  1  0  0  0  0
 37  2  1  0  0  0  0
 38  5  1  0  0  0  0
 39  5  1  0  0  0  0
 40  7  1  0  0  0  0
 41  8  1  0  0  0  0
 42  9  1  0  0  0  0
 43  9  1  0  0  0  0
 44 10  1  0  0  0  0
 45 11  1  0  0  0  0
 46 11  1  0  0  0  0
 47 12  1  0  0  0  0
 48 12  1  0  0  0  0
 49 14  1  0  0  0  0
 50 15  1  0  0  0  0
 51 15  1  0  0  0  0
 52 16  1  0  0  0  0
 53 16  1  0  0  0  0
 54 17  1  0  0  0  0
 55 19  1  0  0  0  0
 56 19  1  0  0  0  0
 57 20  1  0  0  0  0
 58 20  1  0  0  0  0
 59 22  1  0  0  0  0
 60 23  1  0  0  0  0
 61 23  1  0  0  0  0
 62 23  1  0  0  0  0
 63 24  1  0  0  0  0
 64 24  1  0  0  0  0
 65 24  1  0  0  0  0
 66 25  1  0  0  0  0
 67 25  1  0  0  0  0
 68 26  1  0  0  0  0
 69 26  1  0  0  0  0
 70 26  1  0  0  0  0
 71 27  1  0  0  0  0
 72 27  1  0  0  0  0
 73 27  1  0  0  0  0
 74 28  1  0  0  0  0
 75 28  1  0  0  0  0
 76 28  1  0  0  0  0
 77 29  1  0  0  0  0
 78 30  1  0  0  0  0
 79 30  1  0  0  0  0
 80 30  1  0  0  0  0
M  END
